power-flow-agent/results/ieee14/2026-09-16/gpt-5.4/pfagent/traces/31_case14-plain-000-s0.transcript.txt
==============================================================================
TRANSCRIPT  pfagent  |  openrouter:openai/gpt-5.4  |  case14  |  case14-plain-000-s0  run 0
==============================================================================
date: 2026-09-16   seed: 0   difficulty: plain   tool variant: None

[system]   (hash 7da5e2a37ec4, from methods/pfagent/method.json prompt_files)
You are a power system power-flow analysis assistant. You help the user complete power system analysis tasks from natural-language requests.

## What you can do
You complete tasks by calling tool functions:
1. Load an IEEE standard test system (14, 30, 57, 118, 300 buses)
2. Run AC power flow
3. Modify the load at a bus and re-solve
4. Disconnect or reconnect a line and re-solve
5. Query the network status
6. Run an N-1 contingency analysis (disconnect branches one at a time and rank the worst cases)
7. Generate remedial-action suggestions (what-if load shedding or voltage adjustment) to reduce violation risk

## Key rules
- Never fabricate any numerical result. Every voltage, power, loss, or loading value must come from a tool return value.
- If a tool reports an error or a non-converged power flow, say so explicitly and do not report numbers for that state.
- If the request is ambiguous, state the interpretation you are using.
- Bus and line identifiers in the request are MATPOWER 1-based ids; pass them to the tools as given, unless the request itself states a different indexing convention for that identifier (e.g. "(0-based)"), in which case convert it to the MATPOWER 1-based id before calling any tool.
- After a network modification, re-solve before reporting any value.
- Always reply in English.

## Reply format
After each analysis, reply in this structure:
1. One-sentence summary
2. Key numbers (total load, total generation, total losses, voltage range) taken from the tool outputs
3. Violations, if any
4. Suggested next step

[user]
Load case14 and run the power flow, then report the bus with the lowest voltage magnitude.

--- round 1 ---
[assistant]   (760 in / 20 out tokens, 1.3 s)
(no text)
tool_call  load_case(case_name="case14")
[tool load_case]   (gate: not applied)
{"case_name": "case14", "n_buses": 14, "n_generators": 5, "n_lines": 20, "n_loads": 11, "total_load_mw": 252.6562386075145, "total_gen_capacity_mw": 772.4000000000001}

--- round 2 ---
[assistant]   (861 in / 15 out tokens, 1.1 s)
(no text)
tool_call  run_powerflow()
[tool run_powerflow]   (gate: pass)
{"case_name": "case14", "converged": true, "bus_voltages": [{"bus_id": 1, "vm_pu": 1.06, "va_deg": 0.0, "is_violation": true, "violation_type": "overvoltage"}, {"bus_id": 2, "vm_pu": 1.045, "va_deg": -4.891794051560472, "is_violation": false, "violation_type": null}, {"bus_id": 3, "vm_pu": 1.01, "va_deg": -12.366125162406155, "is_violation": false, "violation_type": null}, {"bus_id": 4, "vm_pu": 1.0183915239212782, "va_deg": -10.028839634771284, "is_violation": false, "violation_type": null}, {"bus_id": 5, "vm_pu": 1.0200381478048, "va_deg": -8.56010341484463, "is_violation": false, "violation_type": null}, {"bus_id": 6, "vm_pu": 1.0699999999999998, "va_deg": -13.958742207911099, "is_violation": true, "violation_type": "overvoltage"}, {"bus_id": 7, "vm_pu": 1.0621626345012658, "va_deg": -13.04696755005791, "is_violation": true, "violation_type": "overvoltage"}, {"bus_id": 8, "vm_pu": 1.09, "va_deg": -13.04696755005791, "is_violation": true, "violation_type": "overvoltage"}, {"bus_id": 9, "vm_pu": 1.0569059143341184, "va_deg": -14.61071596696233, "is_violation": true, "violation_type": "overvoltage"}, {"bus_id": 10, "vm_pu": 1.052326003603941, "va_deg": -14.761121541075237, "is_violation": true, "violation_type": "overvoltage"}, {"bus_id": 11, "vm_pu": 1.0575103870445797, "va_deg": -14.496162516452166, "is_violation": true, "violation_type": "overvoltage"}, {"bus_id": 12, "vm_pu": 1.05576872106869, "va_deg": -14.779787935003533, "is_violation": true, "violation_type": "overvoltage"}, {"bus_id": 13, "vm_pu": 1.050911972383339, "va_deg": -14.863715580385694, "is_violation": true, "violation_type": "overvoltage"}, {"bus_id": 14, "vm_pu": 1.0376023344097478, "va_deg": -15.649525018421647, "is_violation": false, "violation_type": null}], "line_flows": [{"line_id": 0, "from_bus": 1, "to_bus": 2, "p_from_mw": 154.13811454554525, "q_from_mvar": -19.76061006389063, "loading_percent": 1.4808425205898086, "is_violation": false}, {"line_id": 1, "from_bus": 1, "to_bus": 5, "p_from_mw": 73.73880675543519, "q_from_mvar": 3.7653629541538476, "loading_percent": 0.7043324516549654, "is_violation": false}, {"line_id": 2, "from_bus": 2, "to_bus": 3, "p_from_mw": 70.82182257194411, "q_from_mvar": 3.803208152925397, "loading_percent": 0.6865781974063875, "is_violation": false}, {"line_id": 3, "from_bus": 2, "to_bus": 4, "p_from_mw": 54.15684852264967, "q_from_mvar": -1.5105511737452986, "loading_percent": 0.523685763763816, "is_violation": false}, {"line_id": 4, "from_bus": 2, "to_bus": 5, "p_from_mw": 40.231134500446, "q_from_mvar": 1.191913569121078, "loading_percent": 0.39064252370955777, "is_violation": false}, {"line_id": 5, "from_bus": 3, "to_bus": 4, "p_from_mw": -22.77561930018395, "q_from_mvar": 3.8154799132562727, "loading_percent": 0.23321496258370142, "is_violation": false}, {"line_id": 6, "from_bus": 4, "to_bus": 5, "p_from_mw": -58.36860396716593, "q_from_mvar": 15.33267117719938, "loading_percent": 0.5985757108140606, "is_violation": false}, {"line_id": 7, "from_bus": 6, "to_bus": 11, "p_from_mw": 6.967603629605105, "q_from_mvar": 3.416707752869872, "loading_percent": 0.07325823033550263, "is_violation": false}, {"line_id": 8, "from_bus": 6, "to_bus": 12, "p_from_mw": 7.482484031794236, "q_from_mvar": 2.40285096941419, "loading_percent": 0.07418892901931208, "is_violation": false}, {"line_id": 9, "from_bus": 6, "to_bus": 13, "p_from_mw": 17.211324231233295, "q_from_mvar": 7.046257566617098, "loading_percent": 0.17556720424929578, "is_violation": false}, {"line_id": 10, "from_bus": 9, "to_bus": 10, "p_from_mw": 4.916604824342274, "q_from_mvar": 3.8821240972755473, "loading_percent": 0.05987072329781813, "is_violation": false}, {"line_id": 11, "from_bus": 9, "to_bus": 14, "p_from_mw": 8.9532414986277, "q_from_mvar": 3.4033000516862097, "loading_percent": 0.09154084340611227, "is_violation": false}, {"line_id": 12, "from_bus": 10, "to_bus": 11, "p_from_mw": -3.289766582927124, "q_from_mvar": -1.428910743428538, "loading_percent": 0.034427733166873066, "is_violation": false}, {"line_id": 13, "from_bus": 12, "to_bus": 13, "p_from_mw": 1.642569180939803, "q_from_mvar": 0.7504652043130923, "loading_percent": 0.017277735887496756, "is_violation": false}, {"line_id": 14, "from_bus": 13, "to_bus": 14, "p_from_mw": 5.06396625554884, "q_from_mvar": 1.561396956066197, "loading_percent": 0.050934292384483056, "is_violation": false}, {"line_id": 100000, "from_bus": 4, "to_bus": 7, "p_from_mw": 27.847455315296415, "q_from_mvar": -9.654737254708465, "loading_percent": 0.2923368883841009, "is_violation": false}, {"line_id": 100001, "from_bus": 4, "to_bus": 9, "p_from_mw": 15.954004304097523, "q_from_mvar": -0.4831027143041827, "loading_percent": 0.15831379271421972, "is_violation": false}, {"line_id": 100002, "from_bus": 5, "to_bus": 6, "p_from_mw": 43.7187863608403, "q_from_mvar": 12.684253225329872, "loading_percent": 0.45078202508092174, "is_violation": false}, {"line_id": 100003, "from_bus": 7, "to_bus": 8, "p_from_mw": 8.004321942921509e-15, "q_from_mvar": -16.785585850530914, "loading_percent": 0.15962844739609688, "is_violation": false}, {"line_id": 100004, "from_bus": 7, "to_bus": 9, "p_from_mw": 27.847455314923003, "q_from_mvar": 5.455477922512485, "loading_percent": 0.26985922382990996, "is_violation": false}], "total_generation_mw": 265.3363657378273, "total_load_mw": 252.6562386075145, "total_loss_mw": 12.68012713511267, "voltage_violations": [{"bus_id": 1, "vm_pu": 1.06, "va_deg": 0.0, "is_violation": true, "violation_type": "overvoltage"}, {"bus_id": 6, "vm_pu": 1.0699999999999998, "va_deg": -13.958742207911099, "is_violation": true, "violation_type": "overvoltage"}, {"bus_id": 7, "vm_pu": 1.0621626345012658, "va_deg": -13.04696755005791, "is_violation": true, "violation_type": "overvoltage"}, {"bus_id": 8, "vm_pu": 1.09, "va_deg": -13.04696755005791, "is_violation": true, "violation_type": "overvoltage"}, {"bus_id": 9, "vm_pu": 1.0569059143341184, "va_deg": -14.61071596696233, "is_violation": true, "violation_type": "overvoltage"}, {"bus_id": 10, "vm_pu": 1.052326003603941, "va_deg": -14.761121541075237, "is_violation": true, "violation_type": "overvoltage"}, {"bus_id": 11, "vm_pu": 1.0575103870445797, "va_deg": -14.496162516452166, "is_violation": true, "violation_type": "overvoltage"}, {"bus_id": 12, "vm_pu": 1.05576872106869, "va_deg": -14.779787935003533, "is_violation": true, "violation_type": "overvoltage"}, {"bus_id": 13, "vm_pu": 1.050911972383339, "va_deg": -14.863715580385694, "is_violation": true, "violation_type": "overvoltage"}], "thermal_violations": [], "summary_text": "", "solver_backend": "pandapower", "llm_prompt": null, "llm_response": null}

--- round 3 ---
[assistant]   (3591 in / 183 out tokens, 2.4 s)
1. One-sentence summary  
IEEE 14-bus case was loaded and the AC power flow converged; the lowest voltage magnitude is at bus 3.

2. Key numbers  
- Total load: 252.656 MW  
- Total generation: 265.336 MW  
- Total losses: 12.680 MW  
- Voltage range: 1.010 pu to 1.090 pu  
- Lowest-voltage bus: bus 3 at 1.010 pu

3. Violations, if any  
- Voltage violations: overvoltage at buses 1, 6, 7, 8, 9, 10, 11, 12, and 13  
- Thermal violations: none

4. Suggested next step  
If you want, I can list all bus voltages in ascending order or investigate the overvoltage violations.

[final answer]
1. One-sentence summary  
IEEE 14-bus case was loaded and the AC power flow converged; the lowest voltage magnitude is at bus 3.

2. Key numbers  
- Total load: 252.656 MW  
- Total generation: 265.336 MW  
- Total losses: 12.680 MW  
- Voltage range: 1.010 pu to 1.090 pu  
- Lowest-voltage bus: bus 3 at 1.010 pu

3. Violations, if any  
- Voltage violations: overvoltage at buses 1, 6, 7, 8, 9, 10, 11, 12, and 13  
- Thermal violations: none

4. Suggested next step  
If you want, I can list all bus voltages in ascending order or investigate the overvoltage violations.

[verification gate]   outcome: pass_first after 1 attempt(s)
attempt 1: pass
      converged              pass  residual 0
      balance                pass  residual 4.80e-09
      no_isolated_buses      pass  residual 0
      faithfulness           pass  residual 0
      currency               pass  residual 0
